<?xml version="1.0" encoding="UTF-8"?>

<!-- generated on 2023-11-22 17:47:04 by Eclipse SUMO netedit Version 1.12.0
<configuration xmlns:xsi="http://www.w3.org/2001/XMLSchema-instance" xsi:noNamespaceSchemaLocation="http://sumo.dlr.de/xsd/netconvertConfiguration.xsd">

    <input>
        <sumo-net-file value="/home/user/Desktop/ghost/cross.net.xml"/>
    </input>

    <output>
        <output-file value="/home/user/Desktop/ghost/cross.net.xml"/>
    </output>

    <processing>
        <geometry.min-radius.fix.railways value="false"/>
        <geometry.max-grade.fix value="false"/>
        <offset.disable-normalization value="true"/>
        <lefthand value="false"/>
    </processing>

    <junctions>
        <no-turnarounds value="true"/>
        <junctions.corner-detail value="0"/>
        <junctions.limit-turn-speed value="-1"/>
        <rectangular-lane-cut value="false"/>
    </junctions>

    <pedestrian>
        <walkingareas value="false"/>
    </pedestrian>

    <report>
        <aggregate-warnings value="5"/>
    </report>

</configuration>
-->

<net version="1.9" xmlns:xsi="http://www.w3.org/2001/XMLSchema-instance" xsi:noNamespaceSchemaLocation="http://sumo.dlr.de/xsd/net_file.xsd">

    <location netOffset="510.00,510.00" convBoundary="10.00,10.00,1010.00,1010.00" origBoundary="-510.00,-510.00,510.00,510.00" projParameter="!"/>

    <edge id=":0_0" function="internal">
        <lane id=":0_0_0" index="0" speed="15.28" length="14.40" shape="505.20,514.00 505.20,499.60"/>
        <lane id=":0_0_1" index="1" speed="15.28" length="14.40" shape="508.40,514.00 508.40,499.60"/>
    </edge>
    <edge id=":0_2" function="internal">
        <lane id=":0_2_0" index="0" speed="15.28" length="9.03" shape="508.40,514.00 508.75,511.55 509.80,509.80 511.55,508.75 514.00,508.40"/>
    </edge>
    <edge id=":0_3" function="internal">
        <lane id=":0_3_0" index="0" speed="15.28" length="9.03" shape="499.60,505.20 502.05,504.85 503.80,503.80 504.85,502.05 505.20,499.60"/>
    </edge>
    <edge id=":0_4" function="internal">
        <lane id=":0_4_0" index="0" speed="15.28" length="14.40" shape="499.60,505.20 514.00,505.20"/>
        <lane id=":0_4_1" index="1" speed="15.28" length="14.40" shape="499.60,508.40 514.00,508.40"/>
    </edge>

    <edge id="1i" from="1" to="0" priority="78">
        <lane id="1i_0" index="0" speed="19.44" length="489.60" shape="10.00,505.20 499.60,505.20"/>
        <lane id="1i_1" index="1" speed="19.44" length="489.60" shape="10.00,508.40 499.60,508.40"/>
    </edge>
    <edge id="2o" from="0" to="2" priority="46">
        <lane id="2o_0" index="0" speed="11.11" length="496.00" shape="514.00,505.20 1010.00,505.20"/>
        <lane id="2o_1" index="1" speed="11.11" length="496.00" shape="514.00,508.40 1010.00,508.40"/>
    </edge>
    <edge id="3o" from="0" to="3" priority="46">
        <lane id="3o_0" index="0" speed="11.11" length="489.60" shape="505.20,499.60 505.20,10.00"/>
        <lane id="3o_1" index="1" speed="11.11" length="489.60" shape="508.40,499.60 508.40,10.00"/>
    </edge>
    <edge id="4i" from="4" to="0" priority="78">
        <lane id="4i_0" index="0" speed="19.44" length="496.00" shape="505.20,1010.00 505.20,514.00"/>
        <lane id="4i_1" index="1" speed="19.44" length="496.00" shape="508.40,1010.00 508.40,514.00"/>
    </edge>

    <tlLogic id="0" type="static" programID="0" offset="0">
        <phase duration="40" state="GGGrrr"/>
        <phase duration="5"  state="yyyrrr"/>
        <phase duration="40" state="rrrGGG"/>
        <phase duration="5"  state="rrryyy"/>
    </tlLogic>

    <junction id="0" type="traffic_light" x="510.00" y="510.00" incLanes="4i_0 4i_1 1i_0 1i_1" intLanes=":0_0_0 :0_0_1 :0_2_0 :0_3_0 :0_4_0 :0_4_1" shape="503.60,514.00 510.00,514.00 514.00,510.00 514.00,503.60 510.00,499.60 503.60,499.60 499.60,503.60 499.60,510.00">
        <request index="0" response="111000" foes="111000" cont="0"/>
        <request index="1" response="111000" foes="111000" cont="0"/>
        <request index="2" response="110000" foes="110000" cont="0"/>
        <request index="3" response="000000" foes="000011" cont="0"/>
        <request index="4" response="000000" foes="000111" cont="0"/>
        <request index="5" response="000000" foes="000111" cont="0"/>
    </junction>
    <junction id="1" type="dead_end" x="10.00" y="510.00" incLanes="" intLanes="" shape="10.00,510.00 10.00,503.60"/>
    <junction id="2" type="dead_end" x="1010.00" y="510.00" incLanes="2o_0 2o_1" intLanes="" shape="1010.00,503.60 1010.00,510.00"/>
    <junction id="3" type="dead_end" x="510.00" y="10.00" incLanes="3o_0 3o_1" intLanes="" shape="503.60,10.00 510.00,10.00"/>
    <junction id="4" type="dead_end" x="510.00" y="1010.00" incLanes="" intLanes="" shape="510.00,1010.00 503.60,1010.00"/>

    <connection from="1i" to="3o" fromLane="0" toLane="0" via=":0_3_0" tl="0" linkIndex="3" dir="r" state="O"/>
    <connection from="1i" to="2o" fromLane="0" toLane="0" via=":0_4_0" tl="0" linkIndex="4" dir="s" state="O"/>
    <connection from="1i" to="2o" fromLane="1" toLane="1" via=":0_4_1" tl="0" linkIndex="5" dir="s" state="O"/>
    <connection from="4i" to="3o" fromLane="0" toLane="0" via=":0_0_0" tl="0" linkIndex="0" dir="s" state="o"/>
    <connection from="4i" to="3o" fromLane="1" toLane="1" via=":0_0_1" tl="0" linkIndex="1" dir="s" state="o"/>
    <connection from="4i" to="2o" fromLane="1" toLane="1" via=":0_2_0" tl="0" linkIndex="2" dir="l" state="o"/>

    <connection from=":0_0" to="3o" fromLane="0" toLane="0" dir="s" state="M"/>
    <connection from=":0_0" to="3o" fromLane="1" toLane="1" dir="s" state="M"/>
    <connection from=":0_2" to="2o" fromLane="0" toLane="1" dir="l" state="M"/>
    <connection from=":0_3" to="3o" fromLane="0" toLane="0" dir="r" state="M"/>
    <connection from=":0_4" to="2o" fromLane="0" toLane="0" dir="s" state="M"/>
    <connection from=":0_4" to="2o" fromLane="1" toLane="1" dir="s" state="M"/>

</net>
