<?xml version="1.0" encoding="UTF-8"?>

<!-- generated on 2023-10-02 15:43:17.717984 by osmWebWizard.py v1_18_0+0000-03ecfdea036
<configuration>
    <net-file value="C:\Users\root\Sumo\2023-10-02-15-43-06\osm.net.xml.gz"/>
    <output-trip-file value="C:\Users\root\Sumo\2023-10-02-15-43-06\osm.passenger.trips.xml"/>
    <route-file value="C:\Users\root\Sumo\2023-10-02-15-43-06\osm.passenger.rou.xml"/>
    <prefix value="veh"/>
    <trip-attributes value="departLane=&quot;best&quot;"/>
    <fringe-start-attributes value="departSpeed=&quot;max&quot;"/>
    <vehicle-class value="passenger"/>
    <lanes value="True"/>
    <fringe-factor value="2"/>
    <allow-fringe.min-length value="1000.0"/>
    <via-edge-types value="highway.motorway,highway.motorway_link,highway.trunk_link,highway.primary_link,highway.secondary_link,highway.tertiary_link"/>
    <min-distance value="300.0"/>
    <min-distance.fringe value="10.0"/>
    <remove-loops value="True"/>
    <validate value="True"/>
    <insertion-density value="6.0"/>
</configuration>
-->

<!-- generated on 2023-10-02 15:43:17 by Eclipse SUMO duarouter Version 1.18.0
<configuration xmlns:xsi="http://www.w3.org/2001/XMLSchema-instance" xsi:noNamespaceSchemaLocation="http://sumo.dlr.de/xsd/duarouterConfiguration.xsd">

    <input>
        <net-file value="C:\Users\root\Sumo\2023-10-02-15-43-06\osm.net.xml.gz"/>
        <route-files value="C:\Users\root\Sumo\2023-10-02-15-43-06\osm.passenger.trips.xml"/>
    </input>

    <output>
        <output-file value="C:\Users\root\Sumo\2023-10-02-15-43-06\osm.passenger.trips.xml.tmp"/>
        <alternatives-output value="NUL"/>
        <write-trips value="true"/>
    </output>

    <processing>
        <remove-loops value="true"/>
    </processing>

    <time>
        <begin value="0.0"/>
        <end value="3600.0"/>
    </time>

    <report>
        <no-warnings value="true"/>
        <ignore-errors value="true"/>
        <no-step-log value="true"/>
    </report>

</configuration>
-->

<routes xmlns:xsi="http://www.w3.org/2001/XMLSchema-instance" xsi:noNamespaceSchemaLocation="http://sumo.dlr.de/xsd/routes_file.xsd">
    <vType id="veh_passenger" vClass="passenger"/>
    <trip id="veh0" type="veh_passenger" depart="0.00" departLane="best" from="257989339" to="-1103349262"/>
    <trip id="veh1" type="veh_passenger" depart="1.72" departLane="best" from="-626531521" to="-380343110#3"/>
    <trip id="veh2" type="veh_passenger" depart="3.44" departLane="best" from="349877221#0" to="316001567#0"/>
    <trip id="veh3" type="veh_passenger" depart="5.16" departLane="best" from="-251869685" to="15044959#0"/>
    <trip id="veh4" type="veh_passenger" depart="6.87" departLane="best" from="305373363#0" to="-1116996040"/>
    <trip id="veh5" type="veh_passenger" depart="8.59" departLane="best" from="-328039452" to="15054293#0"/>
    <trip id="veh6" type="veh_passenger" depart="10.31" departLane="best" from="-1116996029" to="324093517#8"/>
    <trip id="veh7" type="veh_passenger" depart="12.03" departLane="best" from="263086077#0" to="203824081"/>
    <trip id="veh8" type="veh_passenger" depart="13.75" departLane="best" from="-329936874#2" to="251645304"/>
    <trip id="veh9" type="veh_passenger" depart="15.47" departLane="best" from="429694818" to="1050891948"/>
    <trip id="veh10" type="veh_passenger" depart="17.19" departLane="best" from="429694807#0" to="-330758577#2"/>
    <trip id="veh11" type="veh_passenger" depart="18.91" departLane="best" from="-929419640" to="-227443034"/>
    <trip id="veh12" type="veh_passenger" depart="20.62" departLane="best" from="906730808" to="103237802#0"/>
    <trip id="veh13" type="veh_passenger" depart="22.34" departLane="best" from="15044193#0" to="-15048012#3"/>
    <trip id="veh14" type="veh_passenger" depart="24.06" departLane="best" from="429904716#0" to="257799919#0"/>
    <trip id="veh15" type="veh_passenger" depart="25.78" departLane="best" from="429694810#0" to="366850397#0"/>
    <trip id="veh16" type="veh_passenger" depart="27.50" departLane="best" from="15055392#5" to="94068670#0"/>
    <trip id="veh17" type="veh_passenger" depart="29.22" departLane="best" from="-1050891948" to="203824172#0"/>
    <trip id="veh18" type="veh_passenger" depart="30.94" departLane="best" from="429704560" to="-344525036#2"/>
    <trip id="veh19" type="veh_passenger" depart="32.65" departLane="best" from="-485697109#2" to="231664060"/>
    <trip id="veh20" type="veh_passenger" depart="34.37" departLane="best" from="316001564#0" to="-15031621#1"/>
    <trip id="veh21" type="veh_passenger" depart="36.09" departLane="best" from="-15037524#1" to="-429904689#1"/>
    <trip id="veh22" type="veh_passenger" depart="37.81" departLane="best" from="-15047440#0" to="744212550#0"/>
    <trip id="veh23" type="veh_passenger" depart="39.53" departLane="best" departSpeed="max" from="257989325" to="1103349267"/>
    <trip id="veh24" type="veh_passenger" depart="41.25" departLane="best" from="103237782#0" to="-349877221#1"/>
    <trip id="veh25" type="veh_passenger" depart="42.97" departLane="best" from="493317139#0" to="899256514#0"/>
    <trip id="veh26" type="veh_passenger" depart="44.69" departLane="best" from="329623619#0" to="257989339"/>
    <trip id="veh27" type="veh_passenger" depart="46.40" departLane="best" from="244095386#0" to="366695839"/>
    <trip id="veh28" type="veh_passenger" depart="48.12" departLane="best" from="-209699636#3" to="305373366"/>
    <trip id="veh29" type="veh_passenger" depart="49.84" departLane="best" from="96778008#0" to="294450043#12"/>
    <trip id="veh30" type="veh_passenger" depart="51.56" departLane="best" from="199923619#0" to="316001596"/>
    <trip id="veh31" type="veh_passenger" depart="53.28" departLane="best" from="429904707#0" to="429694804#0"/>
    <trip id="veh32" type="veh_passenger" depart="55.00" departLane="best" from="-349877227#5" to="-1117509589#5"/>
    <trip id="veh33" type="veh_passenger" depart="56.72" departLane="best" from="-868523058" to="-626531521"/>
    <trip id="veh34" type="veh_passenger" depart="58.43" departLane="best" from="316001596" to="90554219#0"/>
    <trip id="veh35" type="veh_passenger" depart="60.15" departLane="best" from="555873985#0" to="-952510531#3"/>
    <trip id="veh36" type="veh_passenger" depart="61.87" departLane="best" from="-952194245" to="15031572#0"/>
    <trip id="veh37" type="veh_passenger" depart="63.59" departLane="best" from="741795932#0" to="15046084#0"/>
    <trip id="veh38" type="veh_passenger" depart="65.31" departLane="best" from="-491986054#1" to="493317138"/>
    <trip id="veh39" type="veh_passenger" depart="67.03" departLane="best" from="199923624#1" to="-593177625#1"/>
    <trip id="veh40" type="veh_passenger" depart="68.75" departLane="best" from="203831706#0" to="741795931#0"/>
    <trip id="veh41" type="veh_passenger" depart="70.47" departLane="best" from="-1094636181#4" to="-355519809#6"/>
    <trip id="veh42" type="veh_passenger" depart="72.18" departLane="best" from="98681086" to="15055226#2"/>
    <trip id="veh43" type="veh_passenger" depart="73.90" departLane="best" from="-15042616#0" to="-15031753#5"/>
    <trip id="veh44" type="veh_passenger" depart="75.62" departLane="best" from="-15048175" to="263275341#0"/>
    <trip id="veh45" type="veh_passenger" depart="77.34" departLane="best" from="422243379" to="-15035077#0"/>
    <trip id="veh46" type="veh_passenger" depart="79.06" departLane="best" from="15034136#0" to="1192547991"/>
    <trip id="veh47" type="veh_passenger" depart="80.78" departLane="best" from="-594375764" to="187063605#0"/>
    <trip id="veh48" type="veh_passenger" depart="82.50" departLane="best" from="929419663" to="555873995#0"/>
    <trip id="veh49" type="veh_passenger" depart="84.21" departLane="best" from="-1064987063#3" to="349926452"/>
    <trip id="veh50" type="veh_passenger" depart="85.93" departLane="best" from="305375430#0" to="199923622#0"/>
    <trip id="veh51" type="veh_passenger" depart="87.65" departLane="best" from="-493317139#1" to="294456589#0"/>
    <trip id="veh52" type="veh_passenger" depart="89.37" departLane="best" from="-15048598#6" to="-15037524#3"/>
    <trip id="veh53" type="veh_passenger" depart="91.09" departLane="best" from="15034881" to="914286542"/>
    <trip id="veh54" type="veh_passenger" depart="92.81" departLane="best" from="-555873981#2" to="-594375753"/>
    <trip id="veh55" type="veh_passenger" depart="94.53" departLane="best" from="-15048171#5" to="-294450043#9"/>
    <trip id="veh56" type="veh_passenger" depart="96.25" departLane="best" from="-739467857" to="293941729#0"/>
    <trip id="veh57" type="veh_passenger" depart="97.96" departLane="best" from="242896663#0" to="210309635#6"/>
    <trip id="veh58" type="veh_passenger" depart="99.68" departLane="best" from="368987573#0" to="199923624#4"/>
    <trip id="veh59" type="veh_passenger" depart="101.40" departLane="best" from="390135067" to="188991780#0"/>
    <trip id="veh60" type="veh_passenger" depart="103.12" departLane="best" from="-1012520397" to="98681054#0"/>
    <trip id="veh61" type="veh_passenger" depart="104.84" departLane="best" from="1089331366#0" to="892537175"/>
    <trip id="veh62" type="veh_passenger" depart="106.56" departLane="best" from="555873995#0" to="477919002"/>
    <trip id="veh63" type="veh_passenger" depart="108.28" departLane="best" departSpeed="max" from="-80083121" to="-15033993#1"/>
    <trip id="veh64" type="veh_passenger" depart="109.99" departLane="best" from="555873995#0" to="906056288#0"/>
    <trip id="veh65" type="veh_passenger" depart="111.71" departLane="best" from="15041103#0" to="15050002#6"/>
    <trip id="veh66" type="veh_passenger" depart="113.43" departLane="best" from="-15034854#5" to="-1117509589#5"/>
    <trip id="veh67" type="veh_passenger" depart="115.15" departLane="best" from="373071233#2" to="15055392#10"/>
    <trip id="veh68" type="veh_passenger" depart="116.87" departLane="best" from="15041715" to="203824167#0"/>
    <trip id="veh69" type="veh_passenger" depart="118.59" departLane="best" from="-491986054#1" to="594390246#0"/>
    <trip id="veh70" type="veh_passenger" depart="120.31" departLane="best" departSpeed="max" from="15028850" to="-349884423#2"/>
    <trip id="veh71" type="veh_passenger" depart="122.03" departLane="best" from="15055979#0" to="-380343110#3"/>
    <trip id="veh72" type="veh_passenger" depart="123.74" departLane="best" departSpeed="max" from="-315870253" to="-938226820#1"/>
    <trip id="veh73" type="veh_passenger" depart="125.46" departLane="best" from="98681054#3" to="305375430#0"/>
    <trip id="veh74" type="veh_passenger" depart="127.18" departLane="best" from="-15032494#2" to="15056608#11"/>
    <trip id="veh75" type="veh_passenger" depart="128.90" departLane="best" from="15050014#4" to="-396260445#2"/>
    <trip id="veh76" type="veh_passenger" depart="130.62" departLane="best" departSpeed="max" from="-923613751#1" to="-251643300#8"/>
    <trip id="veh77" type="veh_passenger" depart="132.34" departLane="best" from="349882433#0" to="-355519809#9"/>
    <trip id="veh78" type="veh_passenger" depart="134.06" departLane="best" from="-15035077#0" to="289669904#0"/>
    <trip id="veh79" type="veh_passenger" depart="135.77" departLane="best" from="-349877227#5" to="744212553#0"/>
    <trip id="veh80" type="veh_passenger" depart="137.49" departLane="best" from="481623140" to="-15036876#1"/>
    <trip id="veh81" type="veh_passenger" depart="139.21" departLane="best" from="-355519809#5" to="315870268#0"/>
    <trip id="veh82" type="veh_passenger" depart="140.93" departLane="best" from="324093517#4" to="-15056608#11"/>
    <trip id="veh83" type="veh_passenger" depart="142.65" departLane="best" from="872806216" to="227443002#1"/>
    <trip id="veh84" type="veh_passenger" depart="144.37" departLane="best" from="15041371" to="429694824#0"/>
    <trip id="veh85" type="veh_passenger" depart="146.09" departLane="best" from="429694816#0" to="-315870280"/>
    <trip id="veh86" type="veh_passenger" depart="147.81" departLane="best" from="-15044959#1" to="15036668#0"/>
    <trip id="veh87" type="veh_passenger" depart="149.52" departLane="best" departSpeed="max" from="15028850" to="15047776"/>
    <trip id="veh88" type="veh_passenger" depart="151.24" departLane="best" from="347652665#0" to="315870280"/>
    <trip id="veh89" type="veh_passenger" depart="152.96" departLane="best" from="952827267#0" to="15048171#0"/>
    <trip id="veh90" type="veh_passenger" depart="154.68" departLane="best" from="1103349226#0" to="103237821#0"/>
    <trip id="veh91" type="veh_passenger" depart="156.40" departLane="best" from="-481624141" to="347389353"/>
    <trip id="veh92" type="veh_passenger" depart="158.12" departLane="best" from="-289675175" to="15042616#1"/>
    <trip id="veh93" type="veh_passenger" depart="159.84" departLane="best" from="305373363#0" to="744212550#0"/>
    <trip id="veh95" type="veh_passenger" depart="163.27" departLane="best" from="15032956#5" to="555873995#0"/>
    <trip id="veh96" type="veh_passenger" depart="164.99" departLane="best" from="182993818" to="-15032954#1"/>
    <trip id="veh97" type="veh_passenger" depart="166.71" departLane="best" from="98682199#0" to="-481616595#1"/>
    <trip id="veh98" type="veh_passenger" depart="168.43" departLane="best" from="929419652" to="892537172"/>
    <trip id="veh99" type="veh_passenger" depart="170.15" departLane="best" from="429904717#0" to="257007124#0"/>
    <trip id="veh100" type="veh_passenger" depart="171.87" departLane="best" from="15044959#0" to="349920236"/>
    <trip id="veh101" type="veh_passenger" depart="173.59" departLane="best" from="1095441430#0" to="-15034136#1"/>
    <trip id="veh102" type="veh_passenger" depart="175.30" departLane="best" from="1050891949" to="96753387"/>
    <trip id="veh103" type="veh_passenger" depart="177.02" departLane="best" from="-491986054#1" to="429694822"/>
    <trip id="veh104" type="veh_passenger" depart="178.74" departLane="best" from="15035077#0" to="315870270#0"/>
    <trip id="veh105" type="veh_passenger" depart="180.46" departLane="best" from="906730808" to="98681072#0"/>
    <trip id="veh106" type="veh_passenger" depart="182.18" departLane="best" from="199923604#3" to="349920236"/>
    <trip id="veh107" type="veh_passenger" depart="183.90" departLane="best" from="199923622#0" to="-899098275"/>
    <trip id="veh108" type="veh_passenger" depart="185.62" departLane="best" from="929419652" to="231982217#0"/>
    <trip id="veh109" type="veh_passenger" depart="187.33" departLane="best" from="15057060#0" to="385144569#0"/>
    <trip id="veh110" type="veh_passenger" depart="189.05" departLane="best" from="-15032956#1" to="244095386#0"/>
    <trip id="veh111" type="veh_passenger" depart="190.77" departLane="best" from="15048308#0" to="537038804#1"/>
    <trip id="veh112" type="veh_passenger" depart="192.49" departLane="best" from="-199923624#8" to="929419648"/>
    <trip id="veh113" type="veh_passenger" depart="194.21" departLane="best" from="-15037524#1" to="-315870233#3"/>
    <trip id="veh114" type="veh_passenger" depart="195.93" departLane="best" from="227443009#0" to="316001566"/>
    <trip id="veh115" type="veh_passenger" depart="197.65" departLane="best" from="-349927771" to="-15052912#6"/>
    <trip id="veh116" type="veh_passenger" depart="199.37" departLane="best" from="-594390231" to="493317138"/>
    <trip id="veh117" type="veh_passenger" depart="201.08" departLane="best" from="227443009#0" to="263086070#0"/>
    <trip id="veh118" type="veh_passenger" depart="202.80" departLane="best" from="1202674429#0" to="244095383#0"/>
    <trip id="veh119" type="veh_passenger" depart="204.52" departLane="best" from="15052357#5" to="899098277#0"/>
    <trip id="veh120" type="veh_passenger" depart="206.24" departLane="best" from="315870268#0" to="-349884441#2"/>
    <trip id="veh121" type="veh_passenger" depart="207.96" departLane="best" from="-355519809#8" to="15031611"/>
    <trip id="veh122" type="veh_passenger" depart="209.68" departLane="best" from="294450043#2" to="-90275626#6"/>
    <trip id="veh123" type="veh_passenger" depart="211.40" departLane="best" departSpeed="max" from="-872763330#1" to="390135067"/>
    <trip id="veh124" type="veh_passenger" depart="213.11" departLane="best" from="-15035577" to="15045416"/>
    <trip id="veh125" type="veh_passenger" depart="214.83" departLane="best" from="98681100" to="98681074"/>
    <trip id="veh126" type="veh_passenger" depart="216.55" departLane="best" from="-15035583#1" to="-349897869#2"/>
    <trip id="veh127" type="veh_passenger" depart="218.27" departLane="best" from="929419655" to="897320599#0"/>
    <trip id="veh128" type="veh_passenger" depart="219.99" departLane="best" from="580260688#0" to="662528997#0"/>
    <trip id="veh129" type="veh_passenger" depart="221.71" departLane="best" from="103237782#0" to="-244095386#2"/>
    <trip id="veh130" type="veh_passenger" depart="223.43" departLane="best" from="429708605#0" to="347389353"/>
    <trip id="veh131" type="veh_passenger" depart="225.15" departLane="best" from="249791855#0" to="96778010#0"/>
    <trip id="veh132" type="veh_passenger" depart="226.86" departLane="best" from="-263275261#2" to="1050891951#0"/>
    <trip id="veh133" type="veh_passenger" depart="228.58" departLane="best" from="429694836#0" to="90275593#0"/>
    <trip id="veh134" type="veh_passenger" depart="230.30" departLane="best" from="289669908#0" to="899256536#0"/>
    <trip id="veh135" type="veh_passenger" depart="232.02" departLane="best" from="-15054022#2" to="-15052357#10"/>
    <trip id="veh136" type="veh_passenger" depart="233.74" departLane="best" from="-15048012#5" to="203824173#0"/>
    <trip id="veh138" type="veh_passenger" depart="237.18" departLane="best" from="324093517#0" to="-330758577#2"/>
    <trip id="veh139" type="veh_passenger" depart="238.89" departLane="best" from="-257845369#1" to="594375763"/>
    <trip id="veh140" type="veh_passenger" depart="240.61" departLane="best" from="15046084#0" to="744212553#0"/>
    <trip id="veh141" type="veh_passenger" depart="242.33" departLane="best" from="429904715#0" to="-15047440#0"/>
    <trip id="veh142" type="veh_passenger" depart="244.05" departLane="best" departSpeed="max" from="15028850" to="-742057634"/>
    <trip id="veh143" type="veh_passenger" depart="245.77" departLane="best" departSpeed="max" from="257989325" to="-593177625#0"/>
    <trip id="veh144" type="veh_passenger" depart="247.49" departLane="best" departSpeed="max" from="349917091#0" to="203824172#0"/>
    <trip id="veh145" type="veh_passenger" depart="249.21" departLane="best" from="15030826" to="-1064987028#2"/>
    <trip id="veh146" type="veh_passenger" depart="250.93" departLane="best" departSpeed="max" from="-15036639#6" to="-706522567"/>
    <trip id="veh147" type="veh_passenger" depart="252.64" departLane="best" from="-15057115#5" to="-15055392#0"/>
    <trip id="veh148" type="veh_passenger" depart="254.36" departLane="best" departSpeed="max" from="-80083121" to="741795931#0"/>
    <trip id="veh149" type="veh_passenger" depart="256.08" departLane="best" from="429694798#0" to="555873995#0"/>
    <trip id="veh150" type="veh_passenger" depart="257.80" departLane="best" departSpeed="max" from="662529001" to="-349877227#5"/>
    <trip id="veh151" type="veh_passenger" depart="259.52" departLane="best" from="-429708599#2" to="-15048727#7"/>
    <trip id="veh152" type="veh_passenger" depart="261.24" departLane="best" from="390135068#0" to="706522960"/>
    <trip id="veh153" type="veh_passenger" depart="262.96" departLane="best" from="1116996030" to="263086079"/>
    <trip id="veh154" type="veh_passenger" depart="264.67" departLane="best" from="-199923621#2" to="892537175"/>
    <trip id="veh155" type="veh_passenger" depart="266.39" departLane="best" from="493317142#0" to="952194246"/>
    <trip id="veh156" type="veh_passenger" depart="268.11" departLane="best" from="429694824#0" to="706521850"/>
    <trip id="veh157" type="veh_passenger" depart="269.83" departLane="best" from="1103349261" to="368987573#0"/>
    <trip id="veh158" type="veh_passenger" depart="271.55" departLane="best" departSpeed="max" from="-90275643#4" to="897320594#0"/>
    <trip id="veh159" type="veh_passenger" depart="273.27" departLane="best" from="429694804#0" to="744210498#0"/>
    <trip id="veh160" type="veh_passenger" depart="274.99" departLane="best" from="429694824#0" to="-594390246#0"/>
    <trip id="veh161" type="veh_passenger" depart="276.71" departLane="best" from="420818940#0" to="-15050002#6"/>
    <trip id="veh162" type="veh_passenger" depart="278.42" departLane="best" from="289675175" to="-555873981#2"/>
    <trip id="veh163" type="veh_passenger" depart="280.14" departLane="best" from="263086064#0" to="429904707#0"/>
    <trip id="veh164" type="veh_passenger" depart="281.86" departLane="best" from="15036053" to="-929419644"/>
    <trip id="veh165" type="veh_passenger" depart="283.58" departLane="best" from="-1103349227" to="-316001587#2"/>
    <trip id="veh166" type="veh_passenger" depart="285.30" departLane="best" from="-899256534#1" to="-548012641"/>
    <trip id="veh167" type="veh_passenger" depart="287.02" departLane="best" from="929419648" to="-744212552#1"/>
    <trip id="veh168" type="veh_passenger" depart="288.74" departLane="best" from="257989341#0" to="15032049#0"/>
    <trip id="veh169" type="veh_passenger" depart="290.45" departLane="best" from="94319631#0" to="199923621#0"/>
    <trip id="veh170" type="veh_passenger" depart="292.17" departLane="best" departSpeed="max" from="889254000#0" to="-15052357#10"/>
    <trip id="veh171" type="veh_passenger" depart="293.89" departLane="best" from="914174340" to="-594390223#1"/>
    <trip id="veh172" type="veh_passenger" depart="295.61" departLane="best" from="-15048171#5" to="15037524#1"/>
    <trip id="veh173" type="veh_passenger" depart="297.33" departLane="best" from="347652665#0" to="-952219041"/>
    <trip id="veh174" type="veh_passenger" depart="299.05" departLane="best" departSpeed="max" from="233060552" to="15055392#10"/>
    <trip id="veh175" type="veh_passenger" depart="300.77" departLane="best" from="-107507654#0" to="231664052"/>
    <trip id="veh176" type="veh_passenger" depart="302.49" departLane="best" from="-429904695#3" to="349650160#0"/>
    <trip id="veh177" type="veh_passenger" depart="304.20" departLane="best" from="-103237768#1" to="889253997"/>
    <trip id="veh178" type="veh_passenger" depart="305.92" departLane="best" from="15055918#0" to="349925684#0"/>
    <trip id="veh179" type="veh_passenger" depart="307.64" departLane="best" from="-349920236" to="315870270#0"/>
    <trip id="veh180" type="veh_passenger" depart="309.36" departLane="best" departSpeed="max" from="-98681072#2" to="-15036870#3"/>
    <trip id="veh181" type="veh_passenger" depart="311.08" departLane="best" departSpeed="max" from="289675171#0" to="103237768#0"/>
    <trip id="veh182" type="veh_passenger" depart="312.80" departLane="best" departSpeed="max" from="-83521130#1" to="499882599#0"/>
    <trip id="veh183" type="veh_passenger" depart="314.52" departLane="best" from="-324093517#9" to="90275632#0"/>
    <trip id="veh184" type="veh_passenger" depart="316.23" departLane="best" from="-80378527#2" to="15032956#7"/>
    <trip id="veh185" type="veh_passenger" depart="317.95" departLane="best" from="1103349226#0" to="-897320597#22"/>
    <trip id="veh186" type="veh_passenger" depart="319.67" departLane="best" from="-15052357#12" to="-1050891952#3"/>
    <trip id="veh187" type="veh_passenger" depart="321.39" departLane="best" from="203824211" to="258024199#0"/>
    <trip id="veh188" type="veh_passenger" depart="323.11" departLane="best" from="-744210499" to="-182993819#6"/>
    <trip id="veh189" type="veh_passenger" depart="324.83" departLane="best" from="-1012520397" to="822682935#0"/>
    <trip id="veh190" type="veh_passenger" depart="326.55" departLane="best" from="-15031432#4" to="231982217#0"/>
    <trip id="veh191" type="veh_passenger" depart="328.27" departLane="best" from="-263275263#4" to="15047562#6"/>
    <trip id="veh192" type="veh_passenger" depart="329.98" departLane="best" from="15032956#0" to="349920236"/>
    <trip id="veh193" type="veh_passenger" depart="331.70" departLane="best" from="15041467#0" to="742057636#0"/>
    <trip id="veh194" type="veh_passenger" depart="333.42" departLane="best" from="429694798#0" to="263086067#0"/>
    <trip id="veh195" type="veh_passenger" depart="335.14" departLane="best" departSpeed="max" from="-15040780" to="15055979#0"/>
    <trip id="veh196" type="veh_passenger" depart="336.86" departLane="best" from="257845355#0" to="103237800#0"/>
    <trip id="veh197" type="veh_passenger" depart="338.58" departLane="best" from="429697978" to="385144594#0"/>
    <trip id="veh198" type="veh_passenger" depart="340.30" departLane="best" from="-315870229#2" to="-1103349260#1"/>
    <trip id="veh199" type="veh_passenger" depart="342.01" departLane="best" from="-396260445#2" to="15048308#0"/>
    <trip id="veh200" type="veh_passenger" depart="343.73" departLane="best" from="429904717#0" to="-15037524#1"/>
    <trip id="veh201" type="veh_passenger" depart="345.45" departLane="best" from="-739467857" to="15036403#0"/>
    <trip id="veh202" type="veh_passenger" depart="347.17" departLane="best" from="-307990007#1" to="329623619#0"/>
    <trip id="veh203" type="veh_passenger" depart="348.89" departLane="best" from="15047562#6" to="481624141"/>
    <trip id="veh204" type="veh_passenger" depart="350.61" departLane="best" from="263275268#0" to="103237821#0"/>
    <trip id="veh205" type="veh_passenger" depart="352.33" departLane="best" from="355519819#0" to="429694798#0"/>
    <trip id="veh206" type="veh_passenger" depart="354.05" departLane="best" from="-15048012#3" to="15035583#2"/>
    <trip id="veh207" type="veh_passenger" depart="355.76" departLane="best" from="-251645306#0" to="929419639"/>
    <trip id="veh208" type="veh_passenger" depart="357.48" departLane="best" from="-15050823#5" to="-15032648#0"/>
    <trip id="veh209" type="veh_passenger" depart="359.20" departLane="best" from="-429708599#2" to="502115956"/>
    <trip id="veh210" type="veh_passenger" depart="360.92" departLane="best" from="315870270#0" to="429704558"/>
    <trip id="veh211" type="veh_passenger" depart="362.64" departLane="best" from="289675177#0" to="96778010#0"/>
    <trip id="veh212" type="veh_passenger" depart="364.36" departLane="best" from="227443009#0" to="909524011"/>
    <trip id="veh213" type="veh_passenger" depart="366.08" departLane="best" from="-15056214#1" to="257989343#0"/>
    <trip id="veh214" type="veh_passenger" depart="367.79" departLane="best" from="-324093517#7" to="15054157#2"/>
    <trip id="veh215" type="veh_passenger" depart="369.51" departLane="best" from="429706759" to="203824164#0"/>
    <trip id="veh216" type="veh_passenger" depart="371.23" departLane="best" from="662528997#0" to="377743917#0"/>
    <trip id="veh217" type="veh_passenger" depart="372.95" departLane="best" from="15041475#1" to="-575157393"/>
    <trip id="veh218" type="veh_passenger" depart="374.67" departLane="best" from="-396260459#6" to="-1189290218"/>
    <trip id="veh219" type="veh_passenger" depart="376.39" departLane="best" from="256925145" to="730952025#0"/>
    <trip id="veh220" type="veh_passenger" depart="378.11" departLane="best" from="-15036876#0" to="-80378527#2"/>
    <trip id="veh221" type="veh_passenger" depart="379.83" departLane="best" from="-497815057" to="-963023210#2"/>
    <trip id="veh222" type="veh_passenger" depart="381.54" departLane="best" from="-15056608#1" to="-188991780#2"/>
    <trip id="veh223" type="veh_passenger" depart="383.26" departLane="best" from="-349884441#2" to="-328039452"/>
    <trip id="veh224" type="veh_passenger" depart="384.98" departLane="best" from="316001567#0" to="15034883"/>
    <trip id="veh225" type="veh_passenger" depart="386.70" departLane="best" from="1116996039" to="202905282"/>
    <trip id="veh226" type="veh_passenger" depart="388.42" departLane="best" from="1117716483" to="349595342#4"/>
    <trip id="veh227" type="veh_passenger" depart="390.14" departLane="best" from="1202674436" to="744212551#0"/>
    <trip id="veh228" type="veh_passenger" depart="391.86" departLane="best" from="477919005" to="422243379"/>
    <trip id="veh229" type="veh_passenger" depart="393.57" departLane="best" from="1064987027#0" to="103237821#0"/>
    <trip id="veh230" type="veh_passenger" depart="395.29" departLane="best" from="-952510531#2" to="390135068#0"/>
    <trip id="veh232" type="veh_passenger" depart="398.73" departLane="best" from="-1192547991" to="385144569#0"/>
    <trip id="veh233" type="veh_passenger" depart="400.45" departLane="best" from="15057581" to="257007126#0"/>
    <trip id="veh234" type="veh_passenger" depart="402.17" departLane="best" from="-329936874#2" to="-355519809#6"/>
    <trip id="veh235" type="veh_passenger" depart="403.89" departLane="best" from="15032049#0" to="-1116996035"/>
    <trip id="veh236" type="veh_passenger" depart="405.61" departLane="best" from="-913925278" to="316001570"/>
    <trip id="veh237" type="veh_passenger" depart="407.32" departLane="best" from="1103349267" to="255333713"/>
    <trip id="veh238" type="veh_passenger" depart="409.04" departLane="best" from="15037524#4" to="-15055392#0"/>
    <trip id="veh239" type="veh_passenger" depart="410.76" departLane="best" from="256645747#0" to="-1116996030"/>
    <trip id="veh240" type="veh_passenger" depart="412.48" departLane="best" from="107642881#0" to="-209699636#3"/>
    <trip id="veh241" type="veh_passenger" depart="414.20" departLane="best" from="-1116996030" to="294456589#4"/>