<routes>
        <vType id="passenger" accel="0.8" decel="4.5" sigma="0.5" length="5" minGap="2.5" maxSpeed="15" vClass="passenger" guiShape="passenger" lcSpeedGain="0" lcKeepRight="0" lcCooperative="0"/>
        
        <vType id="emergency" accel="0.8" decel="4.5" sigma="0.5" length="7" minGap="2.5" maxSpeed="25" vClass="emergency" guiShape="emergency" lcSpeedGain="0" lcKeepRight="0" lcCooperative="0"/>

        <route id="right" edges="51o 1i 2o 52i" />
        <route id="down" edges="54o 4i 3o 53i" />
	<vehicle id="down_0" type="passenger" route="down" depart="3" color="0,0,1"/>
	<vehicle id="down_1" type="passenger" route="down" depart="7" color="0,0,1"/>
	<vehicle id="down_2" type="passenger" route="down" depart="61" color="0,0,1"/>
	<vehicle id="right_3" type="emergency" route="right" depart="97" color="1,0,0"/>
	<vehicle id="down_4" type="passenger" route="down" depart="34" color="0,0,1"/>
	<vehicle id="right_5" type="passenger" route="right" depart="42" color="0,0,1"/>
	<vehicle id="right_6" type="passenger" route="right" depart="49" color="0,0,1"/>
	<vehicle id="right_7" type="passenger" route="right" depart="111" color="0,0,1"/>
	<vehicle id="right_8" type="passenger" route="right" depart="114" color="0,0,1"/>
	<vehicle id="right_9" type="passenger" route="right" depart="117" color="0,0,1"/>
	<vehicle id="down_10" type="passenger" route="down" depart="123" color="0,0,1"/>
	<vehicle id="down_11" type="passenger" route="down" depart="127" color="0,0,1"/>
	<vehicle id="right_12" type="passenger" route="right" depart="136" color="0,0,1"/>
	<vehicle id="down_13" type="passenger" route="down" depart="139" color="0,0,1"/>
	<vehicle id="right_14" type="passenger" route="right" depart="140" color="0,0,1"/>
	<vehicle id="right_15" type="passenger" route="right" depart="158" color="0,0,1"/>
	<vehicle id="down_16" type="passenger" route="down" depart="186" color="0,0,1"/>
	<vehicle id="right_17" type="passenger" route="right" depart="198" color="0,0,1"/>
	<vehicle id="down_18" type="passenger" route="down" depart="198" color="0,0,1"/>
	<vehicle id="down_19" type="passenger" route="down" depart="199" color="0,0,1"/>
	<vehicle id="down_20" type="passenger" route="down" depart="205" color="0,0,1"/>
	<vehicle id="down_21" type="passenger" route="down" depart="241" color="0,0,1"/>
	<vehicle id="down_22" type="passenger" route="down" depart="242" color="0,0,1"/>
	<vehicle id="right_23" type="passenger" route="right" depart="272" color="0,0,1"/>
	<vehicle id="down_24" type="passenger" route="down" depart="273" color="0,0,1"/>
	<vehicle id="down_25" type="passenger" route="down" depart="275" color="0,0,1"/>
	<vehicle id="down_26" type="passenger" route="down" depart="292" color="0,0,1"/>
	<vehicle id="down_27" type="passenger" route="down" depart="294" color="0,0,1"/>
	<vehicle id="down_28" type="passenger" route="down" depart="329" color="0,0,1"/>
	<vehicle id="right_29" type="passenger" route="right" depart="345" color="0,0,1"/>
	<vehicle id="down_30" type="passenger" route="down" depart="346" color="0,0,1"/>
	<vehicle id="down_31" type="passenger" route="down" depart="353" color="0,0,1"/>
	<vehicle id="right_32" type="passenger" route="right" depart="372" color="0,0,1"/>
	<vehicle id="down_33" type="passenger" route="down" depart="372" color="0,0,1"/>
	<vehicle id="right_34" type="passenger" route="right" depart="379" color="0,0,1"/>
	<vehicle id="right_35" type="passenger" route="right" depart="391" color="0,0,1"/>
	<vehicle id="right_36" type="passenger" route="right" depart="394" color="0,0,1"/>
	<vehicle id="down_37" type="passenger" route="down" depart="395" color="0,0,1"/>
	<vehicle id="right_38" type="passenger" route="right" depart="400" color="0,0,1"/>
	<vehicle id="right_39" type="passenger" route="right" depart="432" color="0,0,1"/>
	<vehicle id="down_40" type="passenger" route="down" depart="434" color="0,0,1"/>
	<vehicle id="down_41" type="passenger" route="down" depart="439" color="0,0,1"/>
	<vehicle id="right_42" type="emergency" route="right" depart="446" color="1,0,0"/>
	<vehicle id="down_43" type="passenger" route="down" depart="448" color="0,0,1"/>
	<vehicle id="right_44" type="passenger" route="right" depart="452" color="0,0,1"/>
	<vehicle id="down_45" type="passenger" route="down" depart="452" color="0,0,1"/>
	<vehicle id="down_46" type="passenger" route="down" depart="455" color="0,0,1"/>
	<vehicle id="right_47" type="passenger" route="right" depart="500" color="0,0,1"/>
	<vehicle id="right_48" type="passenger" route="right" depart="505" color="0,0,1"/>
	<vehicle id="right_49" type="passenger" route="right" depart="527" color="0,0,1"/>
	<vehicle id="right_50" type="passenger" route="right" depart="529" color="0,0,1"/>
	<vehicle id="right_51" type="passenger" route="right" depart="532" color="0,0,1"/>
	<vehicle id="down_52" type="passenger" route="down" depart="535" color="0,0,1"/>
	<vehicle id="right_53" type="passenger" route="right" depart="540" color="0,0,1"/>
	<vehicle id="right_54" type="passenger" route="right" depart="545" color="0,0,1"/>
	<vehicle id="down_55" type="passenger" route="down" depart="546" color="0,0,1"/>
	<vehicle id="right_56" type="passenger" route="right" depart="554" color="0,0,1"/>
	<vehicle id="down_57" type="passenger" route="down" depart="557" color="0,0,1"/>
	<vehicle id="right_58" type="passenger" route="right" depart="559" color="0,0,1"/>
	<vehicle id="right_59" type="passenger" route="right" depart="582" color="0,0,1"/>
	<vehicle id="down_60" type="passenger" route="down" depart="634" color="0,0,1"/>
	<vehicle id="right_61" type="passenger" route="right" depart="639" color="0,0,1"/>
	<vehicle id="right_62" type="passenger" route="right" depart="647" color="0,0,1"/>
	<vehicle id="down_63" type="passenger" route="down" depart="647" color="0,0,1"/>
	<vehicle id="down_64" type="passenger" route="down" depart="654" color="0,0,1"/>
	<vehicle id="right_65" type="passenger" route="right" depart="664" color="0,0,1"/>
	<vehicle id="down_66" type="passenger" route="down" depart="697" color="0,0,1"/>
	<vehicle id="right_67" type="emergency" route="right" depart="700" color="1,0,0"/>
	<vehicle id="down_68" type="passenger" route="down" depart="712" color="0,0,1"/>
	<vehicle id="down_69" type="passenger" route="down" depart="735" color="0,0,1"/>
	<vehicle id="down_70" type="passenger" route="down" depart="736" color="0,0,1"/>
	<vehicle id="right_71" type="passenger" route="right" depart="739" color="0,0,1"/>
	<vehicle id="right_72" type="passenger" route="right" depart="752" color="0,0,1"/>
	<vehicle id="right_73" type="passenger" route="right" depart="755" color="0,0,1"/>
	<vehicle id="down_74" type="passenger" route="down" depart="766" color="0,0,1"/>
	<vehicle id="right_75" type="passenger" route="right" depart="778" color="0,0,1"/>
	<vehicle id="right_76" type="passenger" route="right" depart="803" color="0,0,1"/>
	<vehicle id="right_77" type="emergency" route="right" depart="808" color="1,0,0"/>
	<vehicle id="right_78" type="emergency" route="right" depart="809" color="1,0,0"/>
	<vehicle id="down_79" type="passenger" route="down" depart="810" color="0,0,1"/>
	<vehicle id="right_80" type="passenger" route="right" depart="819" color="0,0,1"/>
	<vehicle id="down_81" type="passenger" route="down" depart="825" color="0,0,1"/>
	<vehicle id="down_82" type="passenger" route="down" depart="827" color="0,0,1"/>
	<vehicle id="right_83" type="passenger" route="right" depart="828" color="0,0,1"/>
	<vehicle id="right_84" type="passenger" route="right" depart="849" color="0,0,1"/>
	<vehicle id="right_85" type="passenger" route="right" depart="851" color="0,0,1"/>
	<vehicle id="right_86" type="passenger" route="right" depart="860" color="0,0,1"/>
	<vehicle id="down_87" type="passenger" route="down" depart="871" color="0,0,1"/>
	<vehicle id="down_88" type="passenger" route="down" depart="880" color="0,0,1"/>
	<vehicle id="down_89" type="passenger" route="down" depart="884" color="0,0,1"/>
	<vehicle id="right_90" type="passenger" route="right" depart="887" color="0,0,1"/>
	<vehicle id="right_91" type="passenger" route="right" depart="904" color="0,0,1"/>
	<vehicle id="down_92" type="passenger" route="down" depart="929" color="0,0,1"/>
	<vehicle id="right_93" type="passenger" route="right" depart="958" color="0,0,1"/>
	<vehicle id="right_94" type="emergency" route="right" depart="966" color="1,0,0"/>
	<vehicle id="right_95" type="passenger" route="right" depart="967" color="0,0,1"/>
	<vehicle id="down_96" type="passenger" route="down" depart="968" color="0,0,1"/>
	<vehicle id="right_97" type="passenger" route="right" depart="994" color="0,0,1"/>
	<vehicle id="right_98" type="emergency" route="right" depart="1004" color="1,0,0"/>
	<vehicle id="right_99" type="passenger" route="right" depart="1018" color="0,0,1"/>
	<vehicle id="down_100" type="passenger" route="down" depart="1023" color="0,0,1"/>
	<vehicle id="down_101" type="passenger" route="down" depart="1030" color="0,0,1"/>
	<vehicle id="down_102" type="emergency" route="down" depart="1047" color="1,0,0"/>
	<vehicle id="down_103" type="emergency" route="down" depart="1049" color="1,0,0"/>
	<vehicle id="right_104" type="passenger" route="right" depart="1069" color="0,0,1"/>
	<vehicle id="down_105" type="passenger" route="down" depart="1071" color="0,0,1"/>
	<vehicle id="right_106" type="passenger" route="right" depart="1076" color="0,0,1"/>
	<vehicle id="right_107" type="emergency" route="right" depart="1080" color="1,0,0"/>
	<vehicle id="down_108" type="passenger" route="down" depart="1084" color="0,0,1"/>
	<vehicle id="right_109" type="passenger" route="right" depart="1087" color="0,0,1"/>
	<vehicle id="right_110" type="passenger" route="right" depart="1111" color="0,0,1"/>
	<vehicle id="down_111" type="passenger" route="down" depart="1127" color="0,0,1"/>
	<vehicle id="down_112" type="passenger" route="down" depart="1136" color="0,0,1"/>
	<vehicle id="down_113" type="emergency" route="down" depart="1142" color="1,0,0"/>
	<vehicle id="down_114" type="passenger" route="down" depart="1152" color="0,0,1"/>
	<vehicle id="down_115" type="passenger" route="down" depart="1156" color="0,0,1"/>
	<vehicle id="right_116" type="passenger" route="right" depart="1171" color="0,0,1"/>
	<vehicle id="down_117" type="passenger" route="down" depart="1181" color="0,0,1"/>
	<vehicle id="down_118" type="passenger" route="down" depart="1193" color="0,0,1"/>
	<vehicle id="right_119" type="passenger" route="right" depart="1204" color="0,0,1"/>
	<vehicle id="right_120" type="passenger" route="right" depart="1209" color="0,0,1"/>
	<vehicle id="down_121" type="passenger" route="down" depart="1213" color="0,0,1"/>
	<vehicle id="right_122" type="passenger" route="right" depart="1217" color="0,0,1"/>
	<vehicle id="down_123" type="passenger" route="down" depart="1225" color="0,0,1"/>
	<vehicle id="right_124" type="emergency" route="right" depart="1258" color="1,0,0"/>
	<vehicle id="right_125" type="passenger" route="right" depart="1263" color="0,0,1"/>
	<vehicle id="down_126" type="passenger" route="down" depart="1264" color="0,0,1"/>
	<vehicle id="right_127" type="passenger" route="right" depart="1275" color="0,0,1"/>
	<vehicle id="down_128" type="passenger" route="down" depart="1276" color="0,0,1"/>
	<vehicle id="down_129" type="emergency" route="down" depart="1280" color="1,0,0"/>
	<vehicle id="down_130" type="passenger" route="down" depart="1281" color="0,0,1"/>
	<vehicle id="down_131" type="passenger" route="down" depart="1292" color="0,0,1"/>
	<vehicle id="down_132" type="passenger" route="down" depart="1294" color="0,0,1"/>
	<vehicle id="right_133" type="emergency" route="right" depart="1304" color="1,0,0"/>
	<vehicle id="right_134" type="passenger" route="right" depart="1336" color="0,0,1"/>
	<vehicle id="right_135" type="passenger" route="right" depart="1347" color="0,0,1"/>
	<vehicle id="down_136" type="passenger" route="down" depart="1356" color="0,0,1"/>
	<vehicle id="right_137" type="passenger" route="right" depart="1357" color="0,0,1"/>
	<vehicle id="down_138" type="emergency" route="down" depart="1376" color="1,0,0"/>
	<vehicle id="down_139" type="passenger" route="down" depart="1413" color="0,0,1"/>
	<vehicle id="right_140" type="passenger" route="right" depart="1416" color="0,0,1"/>
	<vehicle id="down_141" type="passenger" route="down" depart="1427" color="0,0,1"/>
	<vehicle id="down_142" type="passenger" route="down" depart="1431" color="0,0,1"/>
	<vehicle id="down_143" type="passenger" route="down" depart="1432" color="0,0,1"/>
	<vehicle id="right_144" type="passenger" route="right" depart="1434" color="0,0,1"/>
	<vehicle id="down_145" type="passenger" route="down" depart="1438" color="0,0,1"/>
	<vehicle id="right_146" type="passenger" route="right" depart="1445" color="0,0,1"/>
	<vehicle id="right_147" type="passenger" route="right" depart="1471" color="0,0,1"/>
	<vehicle id="right_148" type="emergency" route="right" depart="1487" color="1,0,0"/>
	<vehicle id="right_149" type="passenger" route="right" depart="1495" color="0,0,1"/>
	<vehicle id="down_150" type="passenger" route="down" depart="1502" color="0,0,1"/>
	<vehicle id="down_151" type="passenger" route="down" depart="1504" color="0,0,1"/>
	<vehicle id="right_152" type="passenger" route="right" depart="1519" color="0,0,1"/>
	<vehicle id="down_153" type="passenger" route="down" depart="1530" color="0,0,1"/>
	<vehicle id="right_154" type="passenger" route="right" depart="1550" color="0,0,1"/>
	<vehicle id="right_155" type="passenger" route="right" depart="1554" color="0,0,1"/>
	<vehicle id="down_156" type="passenger" route="down" depart="1555" color="0,0,1"/>
	<vehicle id="down_157" type="passenger" route="down" depart="1557" color="0,0,1"/>
	<vehicle id="right_158" type="passenger" route="right" depart="1596" color="0,0,1"/>
	<vehicle id="right_159" type="passenger" route="right" depart="1599" color="0,0,1"/>
	<vehicle id="right_160" type="passenger" route="right" depart="1614" color="0,0,1"/>
	<vehicle id="right_161" type="passenger" route="right" depart="1619" color="0,0,1"/>
	<vehicle id="down_162" type="passenger" route="down" depart="1637" color="0,0,1"/>
	<vehicle id="right_163" type="passenger" route="right" depart="1643" color="0,0,1"/>
	<vehicle id="down_164" type="passenger" route="down" depart="1652" color="0,0,1"/>
	<vehicle id="right_165" type="passenger" route="right" depart="1669" color="0,0,1"/>
	<vehicle id="down_166" type="passenger" route="down" depart="1672" color="0,0,1"/>
	<vehicle id="right_167" type="passenger" route="right" depart="1685" color="0,0,1"/>
	<vehicle id="down_168" type="passenger" route="down" depart="1689" color="0,0,1"/>
	<vehicle id="right_169" type="passenger" route="right" depart="1691" color="0,0,1"/>
	<vehicle id="down_170" type="passenger" route="down" depart="1691" color="0,0,1"/>
	<vehicle id="down_171" type="passenger" route="down" depart="1700" color="0,0,1"/>
	<vehicle id="down_172" type="passenger" route="down" depart="1717" color="0,0,1"/>
	<vehicle id="right_173" type="passenger" route="right" depart="1721" color="0,0,1"/>
	<vehicle id="right_174" type="passenger" route="right" depart="1745" color="0,0,1"/>
	<vehicle id="down_175" type="passenger" route="down" depart="1745" color="0,0,1"/>
	<vehicle id="right_176" type="passenger" route="right" depart="1747" color="0,0,1"/>
	<vehicle id="down_177" type="passenger" route="down" depart="1748" color="0,0,1"/>
	<vehicle id="down_178" type="passenger" route="down" depart="1781" color="0,0,1"/>
	<vehicle id="down_179" type="passenger" route="down" depart="1789" color="0,0,1"/>
	<vehicle id="down_180" type="passenger" route="down" depart="1793" color="0,0,1"/>
	<vehicle id="right_181" type="passenger" route="right" depart="1805" color="0,0,1"/>
	<vehicle id="down_182" type="passenger" route="down" depart="1829" color="0,0,1"/>
	<vehicle id="right_183" type="passenger" route="right" depart="1832" color="0,0,1"/>
	<vehicle id="down_184" type="passenger" route="down" depart="1837" color="0,0,1"/>
	<vehicle id="down_185" type="passenger" route="down" depart="1843" color="0,0,1"/>
	<vehicle id="right_186" type="passenger" route="right" depart="1850" color="0,0,1"/>
	<vehicle id="down_187" type="passenger" route="down" depart="1851" color="0,0,1"/>
	<vehicle id="down_188" type="passenger" route="down" depart="1873" color="0,0,1"/>
	<vehicle id="down_189" type="passenger" route="down" depart="1875" color="0,0,1"/>
	<vehicle id="right_190" type="passenger" route="right" depart="1880" color="0,0,1"/>
	<vehicle id="right_191" type="passenger" route="right" depart="1903" color="0,0,1"/>
	<vehicle id="down_192" type="passenger" route="down" depart="1903" color="0,0,1"/>
	<vehicle id="right_193" type="passenger" route="right" depart="1906" color="0,0,1"/>
	<vehicle id="right_194" type="passenger" route="right" depart="1910" color="0,0,1"/>
	<vehicle id="down_195" type="passenger" route="down" depart="1919" color="0,0,1"/>
	<vehicle id="right_196" type="passenger" route="right" depart="1930" color="0,0,1"/>
	<vehicle id="down_197" type="passenger" route="down" depart="1931" color="0,0,1"/>
	<vehicle id="right_198" type="passenger" route="right" depart="1937" color="0,0,1"/>
	<vehicle id="right_199" type="passenger" route="right" depart="1942" color="0,0,1"/>
	<vehicle id="right_200" type="passenger" route="right" depart="1967" color="0,0,1"/>
	<vehicle id="right_201" type="emergency" route="right" depart="1996" color="1,0,0"/>
	<vehicle id="down_202" type="passenger" route="down" depart="2004" color="0,0,1"/>
	<vehicle id="right_203" type="passenger" route="right" depart="2005" color="0,0,1"/>
	<vehicle id="down_204" type="passenger" route="down" depart="2024" color="0,0,1"/>
	<vehicle id="down_205" type="passenger" route="down" depart="2027" color="0,0,1"/>
	<vehicle id="right_206" type="passenger" route="right" depart="2035" color="0,0,1"/>
	<vehicle id="down_207" type="passenger" route="down" depart="2064" color="0,0,1"/>
	<vehicle id="down_208" type="passenger" route="down" depart="2085" color="0,0,1"/>
	<vehicle id="down_209" type="passenger" route="down" depart="2106" color="0,0,1"/>
	<vehicle id="down_210" type="emergency" route="down" depart="2115" color="1,0,0"/>
	<vehicle id="right_211" type="passenger" route="right" depart="2127" color="0,0,1"/>
	<vehicle id="down_212" type="passenger" route="down" depart="2135" color="0,0,1"/>
	<vehicle id="right_213" type="passenger" route="right" depart="2149" color="0,0,1"/>
	<vehicle id="right_214" type="passenger" route="right" depart="2169" color="0,0,1"/>
	<vehicle id="down_215" type="passenger" route="down" depart="2173" color="0,0,1"/>
	<vehicle id="right_216" type="passenger" route="right" depart="2180" color="0,0,1"/>
	<vehicle id="right_217" type="passenger" route="right" depart="2212" color="0,0,1"/>
	<vehicle id="right_218" type="passenger" route="right" depart="2235" color="0,0,1"/>
	<vehicle id="down_219" type="passenger" route="down" depart="2242" color="0,0,1"/>
	<vehicle id="down_220" type="passenger" route="down" depart="2246" color="0,0,1"/>
	<vehicle id="down_221" type="passenger" route="down" depart="2261" color="0,0,1"/>
	<vehicle id="down_222" type="passenger" route="down" depart="2265" color="0,0,1"/>
	<vehicle id="right_223" type="passenger" route="right" depart="2272" color="0,0,1"/>
	<vehicle id="right_224" type="passenger" route="right" depart="2301" color="0,0,1"/>
	<vehicle id="right_225" type="passenger" route="right" depart="2309" color="0,0,1"/>
	<vehicle id="down_226" type="passenger" route="down" depart="2312" color="0,0,1"/>
	<vehicle id="right_227" type="passenger" route="right" depart="2328" color="0,0,1"/>
	<vehicle id="down_228" type="emergency" route="down" depart="2350" color="1,0,0"/>
	<vehicle id="down_229" type="passenger" route="down" depart="2360" color="0,0,1"/>
	<vehicle id="down_230" type="passenger" route="down" depart="2389" color="0,0,1"/>
	<vehicle id="right_231" type="passenger" route="right" depart="2436" color="0,0,1"/>
	<vehicle id="right_232" type="passenger" route="right" depart="2437" color="0,0,1"/>
	<vehicle id="right_233" type="passenger" route="right" depart="2466" color="0,0,1"/>
	<vehicle id="down_234" type="passenger" route="down" depart="2466" color="0,0,1"/>
	<vehicle id="down_235" type="passenger" route="down" depart="2469" color="0,0,1"/>
	<vehicle id="down_236" type="passenger" route="down" depart="2480" color="0,0,1"/>
	<vehicle id="right_237" type="passenger" route="right" depart="2508" color="0,0,1"/>
	<vehicle id="right_238" type="passenger" route="right" depart="2531" color="0,0,1"/>
	<vehicle id="down_239" type="passenger" route="down" depart="2549" color="0,0,1"/>
	<vehicle id="right_240" type="passenger" route="right" depart="2555" color="0,0,1"/>
	<vehicle id="down_241" type="passenger" route="down" depart="2561" color="0,0,1"/>
	<vehicle id="right_242" type="passenger" route="right" depart="2562" color="0,0,1"/>
	<vehicle id="right_243" type="passenger" route="right" depart="2568" color="0,0,1"/>
	<vehicle id="down_244" type="passenger" route="down" depart="2578" color="0,0,1"/>
	<vehicle id="down_245" type="passenger" route="down" depart="2601" color="0,0,1"/>
	<vehicle id="right_246" type="passenger" route="right" depart="2604" color="0,0,1"/>
	<vehicle id="down_247" type="passenger" route="down" depart="2614" color="0,0,1"/>
	<vehicle id="down_248" type="passenger" route="down" depart="2621" color="0,0,1"/>
	<vehicle id="right_249" type="passenger" route="right" depart="2633" color="0,0,1"/>
	<vehicle id="right_250" type="emergency" route="right" depart="2650" color="1,0,0"/>
	<vehicle id="right_251" type="passenger" route="right" depart="2676" color="0,0,1"/>
	<vehicle id="down_252" type="passenger" route="down" depart="2679" color="0,0,1"/>
	<vehicle id="right_253" type="passenger" route="right" depart="2685" color="0,0,1"/>
	<vehicle id="down_254" type="passenger" route="down" depart="2694" color="0,0,1"/>
	<vehicle id="down_255" type="passenger" route="down" depart="2703" color="0,0,1"/>
	<vehicle id="down_256" type="passenger" route="down" depart="2707" color="0,0,1"/>
	<vehicle id="down_257" type="passenger" route="down" depart="2708" color="0,0,1"/>
	<vehicle id="down_258" type="passenger" route="down" depart="2721" color="0,0,1"/>
	<vehicle id="down_259" type="passenger" route="down" depart="2730" color="0,0,1"/>
	<vehicle id="down_260" type="passenger" route="down" depart="2732" color="0,0,1"/>
	<vehicle id="right_261" type="passenger" route="right" depart="2736" color="0,0,1"/>
	<vehicle id="down_262" type="passenger" route="down" depart="2746" color="0,0,1"/>
	<vehicle id="right_263" type="passenger" route="right" depart="2747" color="0,0,1"/>
	<vehicle id="down_264" type="passenger" route="down" depart="2747" color="0,0,1"/>
	<vehicle id="right_265" type="passenger" route="right" depart="2761" color="0,0,1"/>
	<vehicle id="right_266" type="passenger" route="right" depart="2771" color="0,0,1"/>
	<vehicle id="down_267" type="passenger" route="down" depart="2773" color="0,0,1"/>
	<vehicle id="right_268" type="passenger" route="right" depart="2780" color="0,0,1"/>
	<vehicle id="right_269" type="passenger" route="right" depart="2785" color="0,0,1"/>
	<vehicle id="right_270" type="passenger" route="right" depart="2800" color="0,0,1"/>
	<vehicle id="down_271" type="passenger" route="down" depart="2804" color="0,0,1"/>
	<vehicle id="down_272" type="passenger" route="down" depart="2824" color="0,0,1"/>
	<vehicle id="right_273" type="passenger" route="right" depart="2829" color="0,0,1"/>
	<vehicle id="right_274" type="passenger" route="right" depart="2832" color="0,0,1"/>
	<vehicle id="down_275" type="passenger" route="down" depart="2832" color="0,0,1"/>
	<vehicle id="right_276" type="passenger" route="right" depart="2864" color="0,0,1"/>
	<vehicle id="right_277" type="passenger" route="right" depart="2877" color="0,0,1"/>
	<vehicle id="right_278" type="passenger" route="right" depart="2888" color="0,0,1"/>
	<vehicle id="down_279" type="passenger" route="down" depart="2915" color="0,0,1"/>
	<vehicle id="right_280" type="passenger" route="right" depart="2919" color="0,0,1"/>
	<vehicle id="down_281" type="passenger" route="down" depart="2926" color="0,0,1"/>
	<vehicle id="right_282" type="passenger" route="right" depart="2934" color="0,0,1"/>
	<vehicle id="down_283" type="passenger" route="down" depart="2934" color="0,0,1"/>
	<vehicle id="down_284" type="passenger" route="down" depart="2937" color="0,0,1"/>
	<vehicle id="down_285" type="emergency" route="down" depart="2945" color="1,0,0"/>
	<vehicle id="right_286" type="emergency" route="right" depart="2952" color="1,0,0"/>
	<vehicle id="down_287" type="passenger" route="down" depart="2954" color="0,0,1"/>
	<vehicle id="down_288" type="passenger" route="down" depart="2958" color="0,0,1"/>
	<vehicle id="right_289" type="passenger" route="right" depart="2963" color="0,0,1"/>
	<vehicle id="down_290" type="passenger" route="down" depart="2978" color="0,0,1"/>
	<vehicle id="down_291" type="passenger" route="down" depart="2983" color="0,0,1"/>
	<vehicle id="right_292" type="passenger" route="right" depart="3007" color="0,0,1"/>
	<vehicle id="right_293" type="emergency" route="right" depart="3014" color="1,0,0"/>
	<vehicle id="down_294" type="passenger" route="down" depart="3041" color="0,0,1"/>
	<vehicle id="right_295" type="passenger" route="right" depart="3071" color="0,0,1"/>
	<vehicle id="right_296" type="passenger" route="right" depart="3086" color="0,0,1"/>
	<vehicle id="right_297" type="passenger" route="right" depart="3106" color="0,0,1"/>
	<vehicle id="right_298" type="passenger" route="right" depart="3110" color="0,0,1"/>
	<vehicle id="down_299" type="passenger" route="down" depart="3157" color="0,0,1"/>
	<vehicle id="right_300" type="passenger" route="right" depart="3170" color="0,0,1"/>
	<vehicle id="down_301" type="passenger" route="down" depart="3182" color="0,0,1"/>
	<vehicle id="down_302" type="passenger" route="down" depart="3197" color="0,0,1"/>
	<vehicle id="down_303" type="passenger" route="down" depart="3211" color="0,0,1"/>
	<vehicle id="right_304" type="passenger" route="right" depart="3215" color="0,0,1"/>
	<vehicle id="right_305" type="passenger" route="right" depart="3216" color="0,0,1"/>
	<vehicle id="down_306" type="passenger" route="down" depart="3219" color="0,0,1"/>
	<vehicle id="right_307" type="passenger" route="right" depart="3228" color="0,0,1"/>
	<vehicle id="right_308" type="passenger" route="right" depart="3235" color="0,0,1"/>
	<vehicle id="right_309" type="passenger" route="right" depart="3243" color="0,0,1"/>
	<vehicle id="right_310" type="passenger" route="right" depart="3266" color="0,0,1"/>
	<vehicle id="down_311" type="emergency" route="down" depart="3274" color="1,0,0"/>
	<vehicle id="right_312" type="passenger" route="right" depart="3279" color="0,0,1"/>
	<vehicle id="right_313" type="passenger" route="right" depart="3285" color="0,0,1"/>
	<vehicle id="right_314" type="passenger" route="right" depart="3309" color="0,0,1"/>
	<vehicle id="down_315" type="passenger" route="down" depart="3313" color="0,0,1"/>
	<vehicle id="down_316" type="emergency" route="down" depart="3338" color="1,0,0"/>
	<vehicle id="right_317" type="passenger" route="right" depart="3379" color="0,0,1"/>
	<vehicle id="right_318" type="passenger" route="right" depart="3391" color="0,0,1"/>
	<vehicle id="down_319" type="passenger" route="down" depart="3392" color="0,0,1"/>
	<vehicle id="right_320" type="passenger" route="right" depart="3398" color="0,0,1"/>
	<vehicle id="right_321" type="passenger" route="right" depart="3413" color="0,0,1"/>
	<vehicle id="right_322" type="passenger" route="right" depart="3418" color="0,0,1"/>
	<vehicle id="right_323" type="passenger" route="right" depart="3419" color="0,0,1"/>
	<vehicle id="right_324" type="passenger" route="right" depart="3420" color="0,0,1"/>
	<vehicle id="right_325" type="passenger" route="right" depart="3435" color="0,0,1"/>
	<vehicle id="right_326" type="passenger" route="right" depart="3448" color="0,0,1"/>
	<vehicle id="right_327" type="passenger" route="right" depart="3453" color="0,0,1"/>
	<vehicle id="right_328" type="passenger" route="right" depart="3455" color="0,0,1"/>
	<vehicle id="down_329" type="passenger" route="down" depart="3480" color="0,0,1"/>
	<vehicle id="right_330" type="passenger" route="right" depart="3485" color="0,0,1"/>
	<vehicle id="right_331" type="passenger" route="right" depart="3495" color="0,0,1"/>
	<vehicle id="down_332" type="passenger" route="down" depart="3506" color="0,0,1"/>
	<vehicle id="down_333" type="passenger" route="down" depart="3518" color="0,0,1"/>
	<vehicle id="right_334" type="passenger" route="right" depart="3519" color="0,0,1"/>
	<vehicle id="down_335" type="passenger" route="down" depart="3519" color="0,0,1"/>
	<vehicle id="down_336" type="passenger" route="down" depart="3535" color="0,0,1"/>
	<vehicle id="right_337" type="passenger" route="right" depart="3542" color="0,0,1"/>
	<vehicle id="down_338" type="passenger" route="down" depart="3547" color="0,0,1"/>
	<vehicle id="down_339" type="passenger" route="down" depart="3551" color="0,0,1"/>
	<vehicle id="right_340" type="passenger" route="right" depart="3555" color="0,0,1"/>
	<vehicle id="down_341" type="passenger" route="down" depart="3559" color="0,0,1"/>
	<vehicle id="right_342" type="passenger" route="right" depart="3577" color="0,0,1"/>
	<vehicle id="down_343" type="emergency" route="down" depart="3581" color="1,0,0"/>
	<vehicle id="down_344" type="passenger" route="down" depart="3589" color="0,0,1"/>
	<vehicle id="right_345" type="passenger" route="right" depart="3593" color="0,0,1"/>
	<vehicle id="down_346" type="passenger" route="down" depart="3593" color="0,0,1"/>
	<vehicle id="right_347" type="passenger" route="right" depart="3596" color="0,0,1"/>
	<vehicle id="right_348" type="passenger" route="right" depart="3597" color="0,0,1"/>
</routes>
