<?xml version="1.0" encoding="UTF-8"?>

<!-- generated on 2023-10-29 22:00:28 by Eclipse SUMO netedit Version 1.18.0
<configuration xmlns:xsi="http://www.w3.org/2001/XMLSchema-instance" xsi:noNamespaceSchemaLocation="http://sumo.dlr.de/xsd/neteditConfiguration.xsd">

    <input>
        <sumo-net-file value="/home/user/Desktop/Emergency Intersection/data/cross.net.xml"/>
    </input>

    <output>
        <output-file value="/home/user/Desktop/Emergency Intersection/data/cross.net.xml"/>
    </output>

    <processing>
        <geometry.min-radius.fix.railways value="false"/>
        <geometry.max-grade.fix value="false"/>
        <offset.disable-normalization value="true"/>
        <lefthand value="0"/>
    </processing>

    <junctions>
        <no-turnarounds value="true"/>
        <junctions.corner-detail value="0"/>
        <junctions.limit-turn-speed value="-1.00"/>
        <rectangular-lane-cut value="0"/>
    </junctions>

    <pedestrian>
        <walkingareas value="0"/>
    </pedestrian>

</configuration>
-->

<net version="1.16" xmlns:xsi="http://www.w3.org/2001/XMLSchema-instance" xsi:noNamespaceSchemaLocation="http://sumo.dlr.de/xsd/net_file.xsd">

    <location netOffset="510.00,510.00" convBoundary="0.00,0.00,1020.00,1020.00" origBoundary="-510.00,-510.00,510.00,510.00" projParameter="!"/>

    <edge id=":0_0" function="internal">
        <lane id=":0_0_0" index="0" speed="15.28" length="14.40" shape="505.20,514.00 505.20,499.60"/>
        <lane id=":0_0_1" index="1" speed="15.28" length="14.40" shape="508.40,514.00 508.40,499.60"/>
    </edge>
    <edge id=":0_2" function="internal">
        <lane id=":0_2_0" index="0" speed="15.28" length="9.03" shape="508.40,514.00 508.75,511.55 509.80,509.80 511.55,508.75 514.00,508.40"/>
    </edge>
    <edge id=":0_3" function="internal">
        <lane id=":0_3_0" index="0" speed="15.28" length="9.03" shape="499.60,505.20 502.05,504.85 503.80,503.80 504.85,502.05 505.20,499.60"/>
    </edge>
    <edge id=":0_4" function="internal">
        <lane id=":0_4_0" index="0" speed="15.28" length="14.40" shape="499.60,505.20 514.00,505.20"/>
        <lane id=":0_4_1" index="1" speed="15.28" length="14.40" shape="499.60,508.40 514.00,508.40"/>
    </edge>
    <edge id=":1_0" function="internal">
        <lane id=":1_0_0" index="0" speed="15.28" length="8.40" shape="6.00,508.40 8.46,507.90 10.00,506.80 11.54,505.70 14.00,505.20"/>
        <lane id=":1_0_1" index="1" speed="15.28" length="8.40" shape="6.00,508.40 14.00,508.40"/>
    </edge>
    <edge id=":1_2" function="internal">
        <lane id=":1_2_0" index="0" speed="15.28" length="4.67" shape="6.00,508.40 7.20,509.20 7.60,510.00 7.20,510.80 6.00,511.60"/>
    </edge>
    <edge id=":2_0" function="internal">
        <lane id=":2_0_0" index="0" speed="15.28" length="1.44" shape="1014.00,511.60 1012.80,510.80"/>
    </edge>
    <edge id=":2_2" function="internal">
        <lane id=":2_2_0" index="0" speed="15.28" length="3.23" shape="1012.80,510.80 1012.40,510.00 1012.80,509.20 1014.00,508.40"/>
    </edge>
    <edge id=":2_1" function="internal">
        <lane id=":2_1_0" index="0" speed="15.28" length="8.81" shape="1006.00,505.20 1008.46,505.70 1010.00,506.80 1011.54,507.90 1014.00,508.40"/>
    </edge>
    <edge id=":3_0" function="internal">
        <lane id=":3_0_0" index="0" speed="15.28" length="8.81" shape="505.20,14.00 505.70,11.54 506.80,10.00 507.90,8.46 508.40,6.00"/>
    </edge>
    <edge id=":3_1" function="internal">
        <lane id=":3_1_0" index="0" speed="15.28" length="1.44" shape="511.60,6.00 510.80,7.20"/>
    </edge>
    <edge id=":3_2" function="internal">
        <lane id=":3_2_0" index="0" speed="15.28" length="3.23" shape="510.80,7.20 510.00,7.60 509.20,7.20 508.40,6.00"/>
    </edge>
    <edge id=":4_0" function="internal">
        <lane id=":4_0_0" index="0" speed="15.28" length="8.40" shape="508.40,1014.00 507.90,1011.54 506.80,1010.00 505.70,1008.46 505.20,1006.00"/>
        <lane id=":4_0_1" index="1" speed="15.28" length="8.40" shape="508.40,1014.00 508.40,1006.00"/>
    </edge>
    <edge id=":4_2" function="internal">
        <lane id=":4_2_0" index="0" speed="15.28" length="4.67" shape="508.40,1014.00 509.20,1012.80 510.00,1012.40 510.80,1012.80 511.60,1014.00"/>
    </edge>
    <edge id=":51_0" function="internal">
        <lane id=":51_0_0" index="0" speed="15.28" length="4.67" shape="0.00,511.60 -1.20,510.80 -1.60,510.00 -1.20,509.20 0.00,508.40"/>
    </edge>
    <edge id=":52_0" function="internal">
        <lane id=":52_0_0" index="0" speed="15.28" length="4.67" shape="1020.00,508.40 1021.20,509.20 1021.60,510.00 1021.20,510.80 1020.00,511.60"/>
    </edge>
    <edge id=":53_0" function="internal">
        <lane id=":53_0_0" index="0" speed="15.28" length="4.67" shape="508.40,0.00 509.20,-1.20 510.00,-1.60 510.80,-1.20 511.60,0.00"/>
    </edge>
    <edge id=":54_0" function="internal">
        <lane id=":54_0_0" index="0" speed="15.28" length="4.67" shape="511.60,1020.00 510.80,1021.20 510.00,1021.60 509.20,1021.20 508.40,1020.00"/>
    </edge>

    <edge id="1i" from="1" to="0" priority="78">
        <lane id="1i_0" index="0" speed="19.44" length="485.60" shape="14.00,505.20 499.60,505.20"/>
        <lane id="1i_1" index="1" speed="19.44" length="485.60" shape="14.00,508.40 499.60,508.40"/>
    </edge>
    <edge id="2o" from="0" to="2" priority="46">
        <lane id="2o_0" index="0" speed="11.11" length="492.00" shape="514.00,505.20 1006.00,505.20"/>
        <lane id="2o_1" index="1" speed="11.11" length="492.00" shape="514.00,508.40 1006.00,508.40"/>
    </edge>
    <edge id="3o" from="0" to="3" priority="46">
        <lane id="3o_0" index="0" speed="11.11" length="485.60" shape="505.20,499.60 505.20,14.00"/>
        <lane id="3o_1" index="1" speed="11.11" length="485.60" shape="508.40,499.60 508.40,14.00"/>
    </edge>
    <edge id="4i" from="4" to="0" priority="78">
        <lane id="4i_0" index="0" speed="19.44" length="492.00" shape="505.20,1006.00 505.20,514.00"/>
        <lane id="4i_1" index="1" speed="19.44" length="492.00" shape="508.40,1006.00 508.40,514.00"/>
    </edge>
    <edge id="51i" from="1" to="51" priority="78">
        <lane id="51i_0" index="0" speed="19.44" length="6.00" shape="6.00,511.60 0.00,511.60"/>
    </edge>
    <edge id="51o" from="51" to="1" priority="46">
        <lane id="51o_0" index="0" speed="11.11" length="6.00" shape="0.00,508.40 6.00,508.40"/>
    </edge>
    <edge id="52i" from="2" to="52" priority="78">
        <lane id="52i_0" index="0" speed="19.44" length="6.00" shape="1014.00,508.40 1020.00,508.40"/>
    </edge>
    <edge id="52o" from="52" to="2" priority="46">
        <lane id="52o_0" index="0" speed="11.11" length="6.00" shape="1020.00,511.60 1014.00,511.60"/>
    </edge>
    <edge id="53i" from="3" to="53" priority="78">
        <lane id="53i_0" index="0" speed="19.44" length="6.00" shape="508.40,6.00 508.40,0.00"/>
    </edge>
    <edge id="53o" from="53" to="3" priority="46">
        <lane id="53o_0" index="0" speed="11.11" length="6.00" shape="511.60,0.00 511.60,6.00"/>
    </edge>
    <edge id="54i" from="4" to="54" priority="78">
        <lane id="54i_0" index="0" speed="19.44" length="6.00" shape="511.60,1014.00 511.60,1020.00"/>
    </edge>
    <edge id="54o" from="54" to="4" priority="46">
        <lane id="54o_0" index="0" speed="11.11" length="6.00" shape="508.40,1020.00 508.40,1014.00"/>
    </edge>

    <tlLogic id="0" type="static" programID="0" offset="0">
        <phase duration="40" state="GGGrrr"/>
        <phase duration="5"  state="yyyrrr"/>
        <phase duration="40" state="rrrGGG"/>
        <phase duration="5"  state="rrryyy"/>
    </tlLogic>

    <junction id="0" type="traffic_light" x="510.00" y="510.00" incLanes="4i_0 4i_1 1i_0 1i_1" intLanes=":0_0_0 :0_0_1 :0_2_0 :0_3_0 :0_4_0 :0_4_1" shape="503.60,514.00 510.00,514.00 514.00,510.00 514.00,503.60 510.00,499.60 503.60,499.60 499.60,503.60 499.60,510.00">
        <request index="0" response="111000" foes="111000" cont="0"/>
        <request index="1" response="111000" foes="111000" cont="0"/>
        <request index="2" response="110000" foes="110000" cont="0"/>
        <request index="3" response="000000" foes="000011" cont="0"/>
        <request index="4" response="000000" foes="000111" cont="0"/>
        <request index="5" response="000000" foes="000111" cont="0"/>
    </junction>
    <junction id="1" type="priority" x="10.00" y="510.00" incLanes="51o_0" intLanes=":1_0_0 :1_0_1 :1_2_0" shape="14.00,510.00 14.00,503.60 6.00,506.80 6.00,513.20">
        <request index="0" response="000" foes="000" cont="0"/>
        <request index="1" response="000" foes="000" cont="0"/>
        <request index="2" response="000" foes="000" cont="0"/>
    </junction>
    <junction id="2" type="priority" x="1010.00" y="510.00" incLanes="52o_0 2o_0 2o_1" intLanes=":2_2_0 :2_1_0" shape="1014.00,513.20 1014.00,506.80 1006.00,503.60 1006.00,510.00">
        <request index="0" response="10" foes="10" cont="1"/>
        <request index="1" response="00" foes="01" cont="0"/>
    </junction>
    <junction id="3" type="priority" x="510.00" y="10.00" incLanes="3o_0 3o_1 53o_0" intLanes=":3_0_0 :3_2_0" shape="503.60,14.00 510.00,14.00 513.20,6.00 506.80,6.00">
        <request index="0" response="00" foes="10" cont="0"/>
        <request index="1" response="01" foes="01" cont="1"/>
    </junction>
    <junction id="4" type="priority" x="510.00" y="1010.00" incLanes="54o_0" intLanes=":4_0_0 :4_0_1 :4_2_0" shape="506.80,1014.00 513.20,1014.00 510.00,1006.00 503.60,1006.00">
        <request index="0" response="000" foes="000" cont="0"/>
        <request index="1" response="000" foes="000" cont="0"/>
        <request index="2" response="000" foes="000" cont="0"/>
    </junction>
    <junction id="51" type="priority" x="0.00" y="510.00" incLanes="51i_0" intLanes=":51_0_0" shape="0.00,510.00 0.00,513.20 0.00,510.00">
        <request index="0" response="0" foes="0" cont="0"/>
    </junction>
    <junction id="52" type="priority" x="1020.00" y="510.00" incLanes="52i_0" intLanes=":52_0_0" shape="1020.00,510.00 1020.00,506.80 1020.00,510.00">
        <request index="0" response="0" foes="0" cont="0"/>
    </junction>
    <junction id="53" type="priority" x="510.00" y="0.00" incLanes="53i_0" intLanes=":53_0_0" shape="510.00,0.00 506.80,0.00 510.00,0.00">
        <request index="0" response="0" foes="0" cont="0"/>
    </junction>
    <junction id="54" type="priority" x="510.00" y="1020.00" incLanes="54i_0" intLanes=":54_0_0" shape="510.00,1020.00 513.20,1020.00 510.00,1020.00">
        <request index="0" response="0" foes="0" cont="0"/>
    </junction>

    <junction id=":2_2_0" type="internal" x="1012.80" y="510.80" incLanes=":2_0_0 2o_0" intLanes=":2_1_0"/>
    <junction id=":3_2_0" type="internal" x="510.80" y="7.20" incLanes=":3_1_0 3o_0" intLanes=":3_0_0"/>

    <connection from="1i" to="3o" fromLane="0" toLane="0" via=":0_3_0" tl="0" linkIndex="3" dir="r" state="O"/>
    <connection from="1i" to="2o" fromLane="0" toLane="0" via=":0_4_0" tl="0" linkIndex="4" dir="s" state="O"/>
    <connection from="1i" to="2o" fromLane="1" toLane="1" via=":0_4_1" tl="0" linkIndex="5" dir="s" state="O"/>
    <connection from="2o" to="52i" fromLane="0" toLane="0" via=":2_1_0" dir="s" state="M"/>
    <connection from="3o" to="53i" fromLane="0" toLane="0" via=":3_0_0" dir="s" state="M"/>
    <connection from="4i" to="3o" fromLane="0" toLane="0" via=":0_0_0" tl="0" linkIndex="0" dir="s" state="o"/>
    <connection from="4i" to="3o" fromLane="1" toLane="1" via=":0_0_1" tl="0" linkIndex="1" dir="s" state="o"/>
    <connection from="4i" to="2o" fromLane="1" toLane="1" via=":0_2_0" tl="0" linkIndex="2" dir="l" state="o"/>
    <connection from="51i" to="51o" fromLane="0" toLane="0" via=":51_0_0" dir="t" state="M"/>
    <connection from="51o" to="1i" fromLane="0" toLane="0" via=":1_0_0" dir="s" state="M"/>
    <connection from="51o" to="1i" fromLane="0" toLane="1" via=":1_0_1" dir="s" state="M"/>
    <connection from="51o" to="51i" fromLane="0" toLane="0" via=":1_2_0" dir="t" state="M"/>
    <connection from="52i" to="52o" fromLane="0" toLane="0" via=":52_0_0" dir="t" state="M"/>
    <connection from="52o" to="52i" fromLane="0" toLane="0" via=":2_0_0" dir="t" state="m"/>
    <connection from="53i" to="53o" fromLane="0" toLane="0" via=":53_0_0" dir="t" state="M"/>
    <connection from="53o" to="53i" fromLane="0" toLane="0" via=":3_1_0" dir="t" state="m"/>
    <connection from="54i" to="54o" fromLane="0" toLane="0" via=":54_0_0" dir="t" state="M"/>
    <connection from="54o" to="4i" fromLane="0" toLane="0" via=":4_0_0" dir="s" state="M"/>
    <connection from="54o" to="4i" fromLane="0" toLane="1" via=":4_0_1" dir="s" state="M"/>
    <connection from="54o" to="54i" fromLane="0" toLane="0" via=":4_2_0" dir="t" state="M"/>

    <connection from=":0_0" to="3o" fromLane="0" toLane="0" dir="s" state="M"/>
    <connection from=":0_0" to="3o" fromLane="1" toLane="1" dir="s" state="M"/>
    <connection from=":0_2" to="2o" fromLane="0" toLane="1" dir="l" state="M"/>
    <connection from=":0_3" to="3o" fromLane="0" toLane="0" dir="r" state="M"/>
    <connection from=":0_4" to="2o" fromLane="0" toLane="0" dir="s" state="M"/>
    <connection from=":0_4" to="2o" fromLane="1" toLane="1" dir="s" state="M"/>
    <connection from=":1_0" to="1i" fromLane="0" toLane="0" dir="s" state="M"/>
    <connection from=":1_0" to="1i" fromLane="1" toLane="1" dir="s" state="M"/>
    <connection from=":1_2" to="51i" fromLane="0" toLane="0" dir="t" state="M"/>
    <connection from=":2_0" to="52i" fromLane="0" toLane="0" via=":2_2_0" dir="t" state="m"/>
    <connection from=":2_2" to="52i" fromLane="0" toLane="0" dir="t" state="M"/>
    <connection from=":2_1" to="52i" fromLane="0" toLane="0" dir="s" state="M"/>
    <connection from=":3_0" to="53i" fromLane="0" toLane="0" dir="s" state="M"/>
    <connection from=":3_1" to="53i" fromLane="0" toLane="0" via=":3_2_0" dir="t" state="m"/>
    <connection from=":3_2" to="53i" fromLane="0" toLane="0" dir="t" state="M"/>
    <connection from=":4_0" to="4i" fromLane="0" toLane="0" dir="s" state="M"/>
    <connection from=":4_0" to="4i" fromLane="1" toLane="1" dir="s" state="M"/>
    <connection from=":4_2" to="54i" fromLane="0" toLane="0" dir="t" state="M"/>
    <connection from=":51_0" to="51o" fromLane="0" toLane="0" dir="t" state="M"/>
    <connection from=":52_0" to="52o" fromLane="0" toLane="0" dir="t" state="M"/>
    <connection from=":53_0" to="53o" fromLane="0" toLane="0" dir="t" state="M"/>
    <connection from=":54_0" to="54o" fromLane="0" toLane="0" dir="t" state="M"/>

</net>
